ELEMENTS
H O C N AR
END
SPECIES
CH4 O2 CO2 H2O AR N2
END
REACTIONS
CH4+2O2=>CO2+2H2O   9.0E23   0.0    50000.
!FORD /CH4 1.0/
!FORD /O2  2.0/
END
